Curriculum vitae                                                          Lägerhyddsvägen 1, House 5, Room 1112
                                                                                       752 37 Uppsala — Sweden
Bonaventura TAGLIAFIERRO, PhD                                             bonaventura.tagliaﬁerro@angstrom.uu.se
Marie Skłodowska-Curie Postdoc Researcher | 2023 Fulbright Research Scholar              cell: (+39) 329 776 4722

  Scopus ID:57203894923                                                                                ¥ btagliaﬁerro

CURRENT POSITIONS
Post-Doc Research Fellow
UPPSALA UNIVERSITY, Sweden (Aug 2024 – present)
PI of IM–POWER: A numerical Integrated Model for the POWER output of ﬂoating oﬀshore wind farms that are fully
grid-connected during sea storms. This project entails interdisciplinary work between high-ﬁdelity numerical model-
ing and power grid design. In cooperation with Hexicon AB (Stockholm – Sweden) Call HORIZON-MSCA-2022-PF-01.
Visiting scholar
Queen’s University Belfast, UK (Nov 2022 – present)
R&D Dynamic analysis of ﬂoating wind platforms: Investigation of the coupled dynamics of ﬂoating wind turbine plat-
forms: high-ﬁdelity numerical analysis in extreme weather conditions.
Partner EPhysLab
UNIVERSIDADE DE VIGO, Spain (Jan 2019 – present)
R&D SPH frameworks for renewable energy: numerical modeling for wave energy converters (WECs) and anchoring
bases for oﬀshore wind turbines. Developing new functionalities for DualSPHysics; software validation. Coupling
with the open-source library Project Chrono to implement control algorithms for renewable energy devices.

EXPERIENCE
Post-Doc Fellow researcher
BarcelonaTech (UPC), Spain (Oct 2022 – July 2024)
R&D PI-Break: the working package I worked on comprised the use of numerical simulations to assess breakwaters
performance. Research has employed the mesh-less and open-source model DualSPHysics, to carry activities focused
on the modeling of two diﬀerent areas along the main breakwater in Bilbao (Spain).
Honorary Associate
UW-Madison Simulation Based Engineering Lab (SBEL), Wisconsin (Feb - Aug 2023)
R&D Floating oﬀshore wind simulation: was awarded a Fulbright Schuman fellowship to research on the numerical im-
plementation of control system for oﬀshore wind technology.
Visiting Researcher Scholar
QUEEN’S UNIVERSITY BELFAST, UK (Jan – Apr 2022)
Research activities co-funded by HPC-Europa3 program. Investigation of tension-leg platform performance using the
SPH method. Simulations performed on the CirrusII supercomputer (Univestity of Edimburgh, UK). Long simulation
with extreme sea states deﬁned through 50-year return period events.
UNIVERSIDADE DE VIGO, Spain (June – Aug 2021)
Research activities co-funded by the Wave Energy Converter Array Network (WECANet), and EPhysLab. Improve-
ment of the current version of DualSPHysics. Investigation of the Uppsala WEC device, a point absorber equipped
with a sophisticated power take-oﬀ system developed and tested by the Uppsala University (Sweden).
Postgraduated Fellow
EPhysLab UNIVERSIDADE DE VIGO, Spain (June 2018 - Dec 2018 & Jan 2019 - June 2019)
Application of numerical procedures for assessing and improving of an anti-reﬂective caisson in Punta Langosteira (A
Coruña, Spain). Part-time contract for Numerical modeling of wave energy converters (WECs) for control, optimiza-
tion, and survivability analyses of a point-absorber developed by Sandia National Laboratories (US).
Erasmus+
FLANDERS HYDRAULICS RESEARCH, Belgium (Mar - Aug 2017 & Feb - Mar 2018)
Development and validation of a coupling technique of the Lagrangian model DualSPHysics with the NSLW model
SWASH for coastal engineering applications; visited the EPhysLab (Spain) to collaborate with the code developer team;
performed a second stage of two months to complement my previous research.
EDUCATION                                                                        at Stem Scale: Analysis of the Coupled Flow–Structure Inter-
                                                                                 actions Using the SPH-Based DualSPHysics Code and the FEA
Ph.D.: Risk and Sustainability in Civil, Architectural, and Envi-                Module of Chrono.” In: Journal of Marine Science and Engineer-
ronmental Engineering Systems entitled Seismic Protection of Ad-                 ing 12.7. DOI: 10.3390/jmse12071120
justable Pallet Racking Structures with Isolation Systems. With Euro-
                                                                              6. Zhang, R., Tagliaﬁerro, B., Vanden Heuvel, C., Sabarwal, S.,
pean mention.
                                                                                 Bakke, L., Yue, Y., Wei, X., Serban, R., and Negrut, D. (2024).
UNIVERSITY OF SALERNO, Italy (01 Nov 2018 - 29 June 2022)                        “Chrono DEM-Engine: A Discrete Element Method dual-GPU
M.Sc.: Building Engineering and Architecture - with highest hon-                 simulator with customizable contact forces and element shape.”
ors: Specialization in Seismic Design and Structural Optimization                In: Computer Physics Communications, p. 109196. DOI: https:
UNIVERSITY OF SALERNO, Italy (28 May 2018)                                       //doi.org/10.1016/j.cpc.2024.109196
                                                                              7. Tagliaﬁerro, B., Karimirad, M., Altomare, C., Göteman, M.,
Languages
                                                                                 Martínez-Estévez, I., Capasso, S., Domínguez, J. M., Viccione,
Italian: native                                                                  G., Gómez-Gesteira, M., and Crespo, A. J. (2023). “Numerical
English: professional competence                                                 validations and investigation of a semi-submersible ﬂoating oﬀ-
Spanish: pre-intermediate                                                        shore wind turbine platform interacting with ocean waves using
                                                                                 an SPH framework.” In: Applied Ocean Research 141, p. 103757.
PUBLICATIONS                                                                     DOI: https://doi.org/10.1016/j.apor.2023.103757
                                                                              8. El Rahi, J., Martínez-Estévez, I., Tagliaﬁerro, B., Domínguez,
Citations: 890 total citations by 550 documents, (based on Sco-                  J. M., Crespo, A. J., Stratigaki, V., Suzuki, T., and Troch, P. (2023).
pus database).                                                                   “Numerical investigation of wave-induced ﬂexible vegetation
h-index: 19                                                                      dynamics in 3D using a coupling between DualSPHysics and
Co-authors: 196                                                                  the FEA module of Project Chrono.” In: Ocean Engineering 285.
Reviewer 60 veriﬁed reviews for 18 international peer-reviewed                   DOI: 10.1016/j.oceaneng.2023.115227
journals. The complete list can be found at this LINK. Main jour-             9. Martínez-Estévez, I., Tagliaﬁerro, B., El Rahi, J., Domínguez, J.,
nals are:                                                                        Crespo, A., Troch, P., and Gómez-Gesteira, M. (2023). “Coupling
• Ocean Engineering (Elsevier): 14                                               an SPH-based solver with an FEA structural solver to simulate
• Computer Physics Communications (Elsevier): 10                                 free surface ﬂows interacting with ﬂexible structures.” In: Com-
                                                                                 puter Methods in Applied Mechanics and Engineering 410. DOI:
• Journal of Marine Science and Engineering (MDPI): 9
                                                                                 10.1016/j.cma.2023.115989
Book Chapter
                                                                             10. Capasso, S., Tagliaﬁerro, B., Mancini, S., Martínez-Estévez, I.,
Altomare C., Viccione G., Tagliaﬁerro B., Bovolin V., Domínguez
                                                                                 Altomare, C., Domínguez, J. M., and Viccione, G. (2023). “Reg-
J.M., & Crespo A.J.C. Free surface ﬂow simulations with Smoothed
                                                                                 ular Wave Seakeeping Analysis of a Planing Hull by Smoothed
Particle Hydrodynamics method using High Performance Computing.
                                                                                 Particle Hydrodynamics: A Comprehensive Validation.” In: Jour-
Computational Fluid Dynamics - Basic Instruments and Applica-
                                                                                 nal of Marine Science and Engineering 11.4. DOI: 10 . 3390 /
tions in Science, Dr. Adela Ionescu (ed.), InTech, 2018; DOI:10.
                                                                                 jmse11040700
5772/intechopen.71362
                                                                             11. Martínez-Estévez, I., Domínguez, J., Tagliaﬁerro, B., Canelas,
Peer-reviewed scientiﬁc journals                                                 R., García-Feal, O., Crespo, A., and Gómez-Gesteira, M. (2023).
25 research papers and 1 review paper published in international                 “Coupling of an SPH-based solver with a multiphysics library.”
journals:                                                                        In: Computer Physics Communications 283. DOI: 10.1016/j.cpc.
1. Wang, L. et al. (2025). “OC7 phase I: Toward practical sea-state-             2022.108581
   dependent modeling of hydrodynamic viscous drag and damp-                 12. Montuori, R., Nastri, E., and Tagliaﬁerro, B. (2023). “Residual
   ing.” In: Ocean Engineering 336, p. 121745. DOI: https://doi.                 drift control strategies: extension and application to MDOF sys-
   org/10.1016/j.oceaneng.2025.121745                                            tems.” In: Bulletin of Earthquake Engineering. DOI: 10 . 1007 /
2. Yu, S. et al. (2025). “Modelling the hydrodynamic response of                 s10518-023-01837-1
   a ﬂoating oﬀshore wind turbine – a comparative study.” In: Ap-            13. Tagliaﬁerro, B., Karimirad, M., Martínez-Estévez, I., Domínguez,
   plied Ocean Research 155, p. 104441. DOI: https://doi.org/10.                 J. M., Viccione, G., and Crespo, A. J. C. (2022). “Numerical
   1016/j.apor.2025.104441                                                       Assessment of a Tension-Leg Platform Wind Turbine in Inter-
3. Capasso, S., Tagliaﬁerro, B., Martínez-Estévez, I., Altomare, C.,             mediate Water Using the Smoothed Particle Hydrodynamics
   Gómez-Gesteira, M., Göteman, M., and Viccione, G. (2025).                     Method.” In: Energies 15.11. DOI: 10.3390/en15113993
   “Development of an SPH-based numerical wave–current tank                  14. Tagliaﬁerro, B., Martínez-Estévez, I., Domínguez, J. M., Cre-
   and application to wave energy converters.” In: Applied Energy                spo, A. J., Göteman, M., Engström, J., and Gómez-Gesteira, M.
   377. DOI: 10.1016/j.apenergy.2024.124508                                      (2022). “A numerical study of a taut-moored point-absorber
4. Tagliaﬁerro, B., Montuori, R., and Vayas, I. (2024). “Seismic                 wave energy converter with a linear power take-oﬀ system
   design-assisted-by-testing approach for racks with dissipative                under extreme wave conditions.” In: Applied Energy 311,
   baseplates in the cross-aisle direction.” In: Thin-Walled Struc-              p. 118629. DOI: https://doi.org/10.1016/j.apenergy.2022.
   tures 202, p. 112126. DOI: https : // doi . org / 10 . 1016 / j . tws .       118629
   2024.112126                                                               15. Capasso, S., Tagliaﬁerro, B., Martínez-Estévez, I., Domínguez, J.,
5. El Rahi, J., Martínez-Estévez, I., Almeida Reis, R., Tagliaﬁerro,             Crespo, A., and Viccione, G. (2022). “A DEM approach for sim-
   B., Domínguez, J. M., Crespo, A. J. C., Stratigaki, V., Suzuki, T.,           ulating ﬂexible beam elements with the Project Chrono core
   and Troch, P. (2024). “Exploring Wave–Vegetation Interaction
    module in DualSPHysics.” In: Computational Particle Mechanics.            In: Proceedings of the 16th European Wave and Tidal Energy Con-
    DOI: 10.1007/s40571-021-00451-9                                           ference (EWTEC). Funchal, Portugal, pp. 145–1
16. Capasso, S., Tagliaﬁerro, B., Güzel, H., Yilmaz, A., Dal, K., Ko-      2. Dupuis, A., Tagliaﬁerro, B., Capasso, S., Göteman, M., and En-
    caman, S., Viccione, G., and Evangelista, S. (2021). “A numeri-           gström, J. (2025). “Towards Eﬃcient Learning of Neural Fluid
    cal validation of 3d experimental dam-break wave interaction              Force Estimators from CFD-Sampled Regular Waves.” In: Pro-
    with a sharp obstacle using dualsphysics.” In: Water (Switzer-            ceedings of the 16th European Wave and Tidal Energy Conference
    land) 13.15. DOI: 10.3390/w13152133                                       (EWTEC). Funchal, Portugal, pp. 1067–1
17. Tagliaﬁerro, B., Montuori, R., and Castellano, M. G. (2021).           3. Tagliaﬁerro, B., Martínez-Estévez, I., Capasso, S., Domínguez,
    “Shake table testing and numerical modelling of a steel pallet            J. M., Karimirad, M., Viccione, G., Gómez-Gesteira, M., Crespo,
    racking structure with a seismic isolation system.” In: Thin-             A. J. C., and Göteman, M. (2025). “Wave Power Extraction
    Walled Structures 164, p. 107924. DOI: https : // doi . org / 10 .        From Semi-Submersible Hybrid Platforms With Multi-Physics
    1016/j.tws.2021.107924                                                    and High-Fidelity Simulations Powered by SPH.” in: Proceedings
18. Ropero-Giralda, P., Crespo, A. J. C., Coe, R. G., Tagliaﬁerro, B.,        of the ASME 2025 44th OMAE. ASME. Vancouver, Canada
    Domínguez, J. M., Bacelli, G., and Gómez-Gesteira, M. (2021).          4. Mina, B., Tagliaﬁerro, B., Martínez-Estévez, I., Altomare, C.,
    “Modelling a Heaving Point-Absorber with a Closed-Loop Con-               Malara, G., Arena, F., and Gómez-Gesteira, M. (2025). “SPH
    trol System Using the DualSPHysics Code.” In: Energies 14.3.              Modeling of OWCs with Pneumatic PTO: Investigation on
    DOI: 10.3390/en14030760                                                   Chamber Models and Turbine Models.” In: Proceedings of the
19. Tagliaﬁerro, B., Mancini, S., Ropero-Giralda, P., Domínguez, J.,          ASME 2025 44th OMAE. ASME. Vancouver, Canada
    Crespo, A., and Viccione, G. (2021). “Performance assessment           5. Capasso, S., Martínez-Estévez, I., Tagliaﬁerro, B., Göteman,
    of a planing hull using the smoothed particle hydrodynamics               M., Altomare, C., Domínguez, J. M., Thiagarajan, K., Gómez-
    method.” In: Journal of Marine Science and Engineering 9.3,               Gesteira, M., Viccione, G., and Crespo, A. J. C. (2025). “Towards
    pp. 1–19. DOI: 10.3390/jmse9030244                                        a Comprehensive Design Tool for Flexible Wave Energy Con-
20. Montuori, R., Nastri, E., and Tagliaﬁerro, B. (2021). “Resid-             verters: Multiphysics-Augmented SPH-Based Framework.” In:
    ual displacements for non-degrading bilinear oscillators under            Proceedings of the ASME 2025 44th OMAE. ASME. Vancouver,
    seismic actions.” In: Mechanics Research Communications 111,              Canada
    p. 103651. DOI: https://doi.org/10.1016/j.mechrescom.2020.             6. Tagliaﬁerro, B., Capasso, S., Viccione, G., Dell’edera, O., Niosi,
    103651                                                                    F., Martínez-Estévez, I., Domínguez, J., Göteman, M., and
21. Ropero-Giralda, P., Crespo, A. J., Tagliaﬁerro, B., Altomare, C.,         Karimirad, M. (2025). “Numerical validation of a DeepCwind
    Domínguez, J. M., Gómez-Gesteira, M., and Viccione, G. (2020).            ﬂoating platform with inclined taut-legs under regular waves
    “Eﬃciency and survivability analysis of a point-absorber wave             using the SPH method.” English. In: CRC Press/Balkema,
    energy converter using DualSPHysics.” In: Renewable Energy                pp. 731–738. DOI: 10.1201/9781003558859-80
    162, pp. 1763–1776. DOI: https://doi.org/10.1016/j.renene.             7. Mina, B., Martínez-Estévez, I., Gómez-Gesteira, M., Tagliaﬁerro,
    2020.10.012                                                               B., Altomare, C., Malara, G., and Arena, F. (2025). “Hydrody-
22. Tagliaﬁerro, B., Crespo, A., González-Cao, J., Altomare, C.,              namic modeling of OWC and U-OWC wave energy converters
    Sande, J., Peña, E., and Gómez-Gesteira, M. (2020). “Numeri-              using the SPH method.” In: CRC Press/Balkema, pp. 257–266.
    cal modelling of a multi-chambered low-reﬂective caisson.” In:            DOI: 10.1201/9781003558859-29
    Applied Ocean Research 103, p. 102325. DOI: https://doi.org/           8. Fernandez, G. V., Ferri, F., Eskilsson, C., Tagliaﬁerro, B., and
    10.1016/j.apor.2020.102325                                                Palm, J. (2025). “Trenching of mooring lines using a discrete
23. Simoncelli, M., Tagliaﬁerro, B., and Montuori, R. (2020). “Re-            element method approach.” In: CRC Press/Balkema, pp. 427–
    cent development on the seismic devices for steel storage                 435. DOI: 10.1201/9781003558859-47
    structures.” In: Thin-Walled Structures 155, p. 106827. DOI:           9. Dell’Edera, O., Niosi, F., Capasso, S., Martínez-Estévez, I., and
    https://doi.org/10.1016/j.tws.2020.106827                                 Tagliaﬁerro, B. (2025). “Capturing wave energy converter’s ex-
24. Amicarelli, A. et al. (2020). “SPHERA v.9.0.0: A Computational            treme response: Experimental validation of DualSPHysics and
    Fluid Dynamics research code, based on the Smoothed Particle              STAR CCM+.” In: CRC Press/Balkema, pp. 157–163. DOI: 10.
    Hydrodynamics mesh-less method.” In: Computer Physics Com-                1201/9781003558859-18
    munications 250, p. 107157. DOI: https://doi.org/10.1016/j.           10. Capasso, S., Tagliaﬁerro, B., Göteman, M., Martínez-Estévez, I.,
    cpc.2020.107157                                                           Domínguez, J. M., Altomare, C., Gómez-Gesteira, M., Crespo,
25. Montuori, R., Nastri, E., and Tagliaﬁerro, B. (2019). “An optimal         A. J., and Viccione, G. (2024). “Inﬂuence of Underlying Currents
    seismic force pattern for uniform drift distribution.” In: Build-         on the Performance of a Taut-Moored Point-Absorber Wec: An
    ings 9.11. DOI: 10.3390/buildings9110231                                  Investigation via High-End Numerical Tools.” In: Proceedings of
                                                                              the ASME 2024 43nd OMAE. ASME. Singapore
26. Altomare, C., Tagliaﬁerro, B., Dominguez, J., Suzuki, T., and Vic-
    cione, G. (2018). “Improved relaxation zone method in SPH-            11. Tagliaﬁerro, B., Karimirad, M., Capasso, S., Göteman, M.,
    based model for coastal engineering applications.” In: Applied            Martínez-Estévez, I., Domínguez, J. M., Altomare, C., Viccione,
    Ocean Research 81, pp. 15–33. DOI: https://doi.org/10.1016/j.             G., Crespo, A. J., and Negrut, D. (2023). “Coupled Numerical
    apor.2018.09.013                                                          Simulation of Floating Oﬀshore Wind Turbine Platforms: Inves-
                                                                              tigating the Eﬀects of Wave and Wind Loading Using a High-
 Peer-reviewed conference proceedings
                                                                              Fidelity SPH-Based Model.” In: Proceedings of the ASME 2023
 46 papers submitted to national or international conferences (22             IOWTC. The Exeter University, Exeter, United Kingdom
 as ﬁrst author):
                                                                          12. Tagliaﬁerro, B., Martínez-Estévez, I., Capasso, S., Domínguez,
 1. Mina, B., Tagliaﬁerro, B., Martínez-Estévez, I., Malara, G., Arena,       J., O’Connor, J., Altomare, C., Viccione, G., Crespo, A., Rogers,
    F., Crespo, A. J. C., and Gómez-Gesteira, M. (2025). “An OWC              B. D., Serban, R., and Negrut, D. (2023). “Comparative Analysis
    chamber model for SPH implementations on ﬂoating devices.”
    of Smoothed Particle Hydrodynamics (SPH) for Fluid-Structure               di Idraulica e Costruzioni Idrauliche), September 2022, Reggio
    Interaction: Computational Performance of Lagrangian SPH                   Calabria, Italy.
    and Structural Modeling Strategies.” In: Proceedings of the            23. Capasso S., Tagliaﬁerro B., El Rahi J., Quartier N., and Giacomo
    ASME 2023 DETC. Boston, Massachusetts                                      V. A ﬂexible beam model for wave mitigation simulations using
13. Crespo, A. J., Tagliaﬁerro, B., and et al. (2023). “On the State-of-       Lagrangian methods, IDRA2022 (38th Convegno Nazionale di
    the-Art of CFD Simulations for WECs within the Open-Source                 Idraulica e Costruzioni Idrauliche), September 2022, Reggio Cal-
    Numerical Framework of DualSPHysics.” In: Proceedings of                   abria, Italy.
    the 15th European Wave and Tidal Energy Conference. Bilbao,            24. Capasso, S., Tagliaﬁerro, B., Crespo, A., Martínez-Estévez, I.,
    pp. 145–1                                                                  Domínguez, J., Gómez-Gesteira, M., and Viccione, G. (2022).
14. Tagliaﬁerro, B., Altomare, C., Sánchez-Arcilla, A., Domínguez,             “DEM-WCSPH Modeling of Hydroelastic Slamming.” In: Pro-
    J. M., Crespo, A., and Gómez-Gesteira, M. (2023). “Develop-                ceedings of the 17th SPHERIC International Workshop. Catania,
    ments and application of an oﬄine coupling for armor block                 Italy
    breakwaters on impermeable bed.” In: Proceedings of the 17th           25. Capasso S., Tagliaﬁerro B., Giacomo V. Applications of a SPH-
    International SPHERIC Workshop. Ed. by G. Fourtakas. SPHERIC.              DEM coupled model for elastic Fluid-Structure Interaction, 5th
    Rhodes Island, Greece: The University of Manchester, UK                    EWaS International Conference), 12-15 July 2022, Napoli, Italy.
15. Tagliaﬁerro, B., Capasso, S., Martínez-Estévez, I., Göteman, M.,       26. Tagliaﬁerro, B., Martínez-Estévez, I., Crego-Loureiro, C.,
    Bernhoﬀ, H., Karimirad, M., Domínguez, J., Altomare, C., Vic-              Domínguez, J. M., Crespo, A. J., Coe, R. G., Bacelli, G., Viccione,
    cione, G., Crespo, A., and Gómez-Gesteira, M. (2023). “Hy-                 G., and Gómez-Gesteira, M. (2022). “Numerical Modeling of
    drodynamic Validation of a Semi-Submersible Floating Platform              Moored Floating Platforms for Wave Energy Converters Using
    Supporting a 15MW Wind Turbine Tower Under Extreme Load-                   DualSPHysics.” English. In: vol. 5-A. American Society of Me-
    ing Scenarios with DualSPHysics and MoorDyn+.” In: Proceed-                chanical Engineers (ASME). DOI: 10.1115/OMAE2022-78810
    ings of the 33rd (2023) ISOPE. Ottawa, Canada
                                                                           27. Tagliaﬁerro, B., Karimirad, M., Martínez-Estévez, I., Domínguez,
16. Tagliaﬁerro, B., Altomare, C., Mitsui, J., Domínguez, J., Crespo,          J. M., Crespo, A. J., Gómez-Gesteira, M., and Viccione, G.
    A., Gómez-Gesteira, M., Hernaez, M., and Sánchez-Arcilla, A.               (2022). “Preliminary Study of Floating Oﬀshore Wind Turbines
    (2023). “An Insightful Tool for the Response of Armor Block                Motions Using the Smoothed Particle Hydrodynamics Method.”
    Breakwaters on Impermeable Bed Combining Numerical Mod-                    In: vol. 5-A. American Society of Mechanical Engineers (ASME).
    eling Techniques.” In: Proceedings of the 33rd (2023) ISOPE. Ot-           DOI: 10.1115/OMAE2022-78419
    tawa, Canada
                                                                           28. Capasso S., Tagliaﬁerro B., Giacomo V. Dam break induced - ur-
17. Goursand-Parente, G. C., Tagliaﬁerro, B., Capasso, S., Crespo,             ban ﬂood propagation modelling with DualSPHysics: a validation
    A., and Viccione, G. (2023). “Semi-analytical characterization of          case study, New Metropolitan Perspectives (5th International
    a sloshing ﬂuid mass using a smoothed particle hydrodynamic                Symposium):, 25-27 May 2022, Reggio Calabria, Italy.
    based method.” In: Proceedings of the 9th COMPDYN 2023. Ed.
                                                                           29. Martínez-Estévez I., Domínguez J.M., Tagliaﬁerro B., Canelas
    by M. Papadrakakis and M. Fragiadakis. ECCOMAS. Athens,
                                                                               R., García-Feal O., Crespo A.J.C., Gómez-Gesteira M. Coupling
    Greece
                                                                               of an SPH-based code with a multiphysics library, SPHERIC Inter-
18. Capasso, S., Tagliaﬁerro, B., Mancini, S., De Luca, F., Martínez-          national Workshop, 28 Mar-02 Apr 2022, Xi’an, China.
    Estévez, I., Domínguez, J. M., Altomare, C., Crespo, A. J., Pensa,
                                                                           30. Tagliaﬁerro, B., Ropero-Giralda, P., Crespo, A. J. C., Coe Ryan
    C., and Viccione, G. (2023). “Preliminary Investigation into
                                                                               G.and Domínguez, J., Bacelli, G., and Gómez-Gesteira, M.
    the Dynamic of Planing Hulls in Regular Waves Using the
                                                                               (2021). “DualSPHysics: a Numerical Tool to Design Point-
    Smoothed Particle Hydrodynamics Method.” In: Proceedings of
                                                                               Absorbing WECs.” In: 14th European Wave and Tidal Energy Con-
    the ASME 2023 42nd OMAE. ASME. Melbourne, Australia
                                                                               ference (EWTEC), Plymouth, UK
19. Capasso, S., Tagliaﬁerro, B., Gonzalez-Avalos, R., Martínez-
                                                                           31. Capasso, S., Tagliaﬁerro, B., Martínez-Estévez, I., Domínguez, J.,
    Estévez, I., Domínguez, J. M., Altomare, C., Crespo, A. J., and
                                                                               Rahi, J., Stratigaki, V., Crespo, A., Montuori, R., Troch, P., Gómez-
    Viccione, G. (2023). “Numerical Simulation of a Moored Wave-
                                                                               Gesteira, M., and Viccione, G. (2021). “On the development of
    Buoy in Waves and Current by Smoothed Particle Hydrodynam-
                                                                               a novel approach for simulating elastic beams in dualsphysics
    ics.” In: Proceedings of the ASME 2023 42nd OMAE. ASME. Mel-
                                                                               with the use of the project Chrono library.” In: vol. 2021-June.
    bourne, Australia
                                                                               National Technical University of Athens
20. Tagliaﬁerro B., Göteman M., Engström J., Martínez-Estévez I.,
                                                                           32. Tagliaﬁerro, B., Montuori, R., Simoncelli M., Titirla M.D., Lignos
    Domínguez J.M., Crespo A.J.C., Gómez-Gesteira M., Altomare
                                                                               X., Vayas, I. Experimental testing campaign and numerical mod-
    C. Investigation into embedded focused wave group suitability for
                                                                               elling of an innovative base-plate connection for pallet racking sys-
    the assessment of extreme hydrodynamics loads on point-absorber
                                                                               tems., 8th COMPDYN 2021, 28-30 June 2021, Athens, Greece.
    WECs. (2023). RENEW 2022. 5th International Conference on
    Renewable Energies Oﬀshore, 12-15 Nov 2022, Lisbon, Portu-             33. Tagliaﬁerro B., Simoncelli M., Montuori R. Seismic devices for
    gal.                                                                       storage structures: literature review and case studies, 8th COMP-
                                                                               DYN 2021, 28-30 June 2021, Athens, Greece.
21. Quaranta, E., Tagliaﬁerro, B., and Viccione, G. (2022). “Harness-
    ing the rainfall on building roofs for micro hydropower gener-         34. Tagliaﬁerro, B., Montuori, R., Crespo A.J.C., Vayas, I. Structural
    ation in the European Union.” In: Proceedings of the 3rd IAHR              safety & computation: from seismic engineering to wave energy.,
    Young Professionals Congress. Online. International Association            4th DCE 2021, 28-29 June 2021, Porto, Portugal.
    for Hydro-Environment Engineering and Research (IAHR)                  35. Tagliaﬁerro B., Viccione G. Harvesting energy from down-
22. Tagliaﬁerro B., Martínez-Estévez I., Capasso S., Karimirad M.,             pipes: DualSPHysics applications, IDRA2020 (XXXVII Convegno
    Domínguez J.M., Crespo A.J.C., Gómez-Gesteira M., Giacomo                  Nazionale di Idraulica e Costruzioni Idrauliche):, 14-16 June
    V. Recent development in the simulation of renewable energy de-            2021, Reggio Calabria, Italy.
    vices with DualSPHysics, IDRA2022 (38th Convegno Nazionale             36. Tagliaﬁerro B., Martínez-Estévez I., Domínguez J.M., Crespo
    A.J.C., Göteman M., Engström J., Gómez-Gesteira M. Numeri-             (two papers were presented).
    cal modelling of a moored point-absorber WEC with DualSPHysics       • SWC Project workshop 2025, 11-12 Mar 2025, Stockholm,
    coupled with multiphysics libraries, SPHERIC 2020 workshop, 8-         Sweden (oral presentation).
    11 June 2021, Newark, NJ USA.
                                                                         • 25th DNV Nordic Maritime Universities Workshop, 30-31 Jan
37. Martínez-Estévez I., El Rahi J., Tagliaﬁerro B., Domínguez J.M.,       2025, Technical University of Denmark (DTU), Denmark (oral
    Crespo A.J.C., Stratigaki V., Suzuki T., Troch P., Gómez-Gesteira      presentation).
    M., Simulating complex ﬂuid-elastic structure interactions within
                                                                         • ERA DeepWind 2025 22nd , 15-17 Jan 2025, Trondheim, Nor-
    DualSPHysics: an extended coupling with an FEA structural solver,
                                                                           way. (oral presentation)
    SPHERIC 2020 workshop, 8-11 June 2021, Newark, NJ USA.
                                                                         • RENEW 2024 6th International Conference on Renewable En-
38. Tagliaﬁerro, B., Montuori, R., Vayas, I., Ropero-Giralda, P., Cre-
                                                                           ergies Oﬀshore, 19-22 Nov 2024, Lisbon, Portugal (two papers
    spo, A., Domìnguez, J., Altomare, C., Viccione, G., and Gòmez-
                                                                           were presented).
    Gesteira, M. (2020). “A new open source solver for modelling
    ﬂuid-structure interaction: case study of a point-absorber           • CoastLab24 9th Conference on Physical Modelling in Coastal
    wave energy converter with a power take-oﬀ unit.” In: Proceed-         Engineering. Delft University of Technology, NL.
    ings of the 11th International Conference on Structural Dynamics,    • MODENERLANDS – WG general meeting. An SPH-based
    Athens, Greece. DOI: 10.47964/1120.9052.21578                          high-ﬁdelity tool for ﬂoating oﬀshore platforms. COST ACTION
39. Crespo A.J.C., Ropero P., Domínguez J.M., Gómez-Gesteira M.,           CA20109, 25-26 Mar 2024, KTU, Lithuania.
    Tagliaﬁerro B., Viccione G., Altomare C. SPH modelling of ex-        • DualSPHysics Users Workshop 7th DualSPHysics Users Work-
    treme loads exerted onto a point absorber WEC, RENEW 2020.             shop, 19-21 Mar 2024, Polythecnic of Bari, Italy.
    4th International Conference on Renewable Energies Oﬀshore,          • Iberian SPH 2024 3rd Iberian Congress Advances on SPH, 23-
    12-15 Oct 2020, Lisbon, Portugal.                                      24 Jan 2024, Ourense, Spain.
40. Ropero P., Tagliaﬁerro B., Altomare C., Domínguez J.M., Crespo       • IOWTC 2023 7th International Oﬀshore Wind Technical Confer-
    A.J.C., Viccione G., Gómez-Gesteira M., Numerical modelling of         ence, 18-19 Dec 2023, Exeter, England.
    the eﬃciency and survivability of a point absorber, MARTECH
                                                                         • MSNDC 2023 19th International Conference on Multibody
    2020. Marine technology workshop, 16-19 Nov 2020, Vigo,
                                                                           Systems, Nonlinear Dynamics, and Control, 20-23 Aug 2023,
    Spain.
                                                                           Boston, MA.
41. Montuori R., Nastri E., Tagliaﬁerro B*. A Design Procedure for
                                                                         • ISOPE 2023 The 33rd International Ocean and Polar Engineer-
    Controlling the Residual Drift: Application to a Dual-System. The
                                                                           ing Conference, 18-23 June 2023, Ottawa, Canada (two papers
    27th Convention CTA, 3-4 Oct 2019, Bologna, Italy.
                                                                           were presented).
42. Tagliaﬁerro B., Crespo A.J.C., Domínguez J.M., García-Feal O.,
                                                                         • EERA DeepWind 2023 20th , 18-20 Jan 2023, Trondheim, Nor-
    Gómez-Gesteira M., Canelas R., Coe R., Bacelli G., Cho H.,
                                                                           way. (oral and poster presentations)
    Spencer S., and Viccione G. Numerical modelling of a point-
    absorbing WEC model using SPH coupled with a multiphysics li-        • RENEW 2022 5th International Conference on Renewable En-
    brary, The 13th EWTEC European Wave and Tidal Energy Con-              ergies Oﬀshore, 12-15 Nov 2022, Lisbon, Portugal.
    ference, 2-6 Sep 2019, Napoli, Italy.                                • DualSPHysics Workshop 6th DualSPHysics Users Workshop,
43. Tagliaﬁerro B., Domìnguez J.M., Gonzàlez-Cao J., Crespo A.J.C.,        25-27 oct 2022, Campus Nord UPC, Barcelona, Spain.
    Gómez-Gesteira M., Altomare C., Sande J., Costas R., Peña E.         • OMAE 2022 41st International Conference on Ocean, Oﬀshore
    Application of DualSPHysics in assessment and design of a wave         & Arctic Engineering, 6-10 June 2022, Hamburg, Germany (two
    absorbing caisson, 4th DualSPHysics Users Workshop, 22-24              papers were presented).
    Oct 2018, Lisbon, Portugal.                                          • EWTEC 2021 14th European Wave and Tidal Energy Confer-
44. Tagliaﬁerro B., Nastri E., Seismic Design Lateral Force Distribu-      ence, 5-9 Sep 2021, Plymouth, UK (Online).
    tions Based on Elastic Analysis of Structures, The 16th ICNAAM       • COMPDYN 2021 8th International Conference on Computa-
    International Conference of Numerical Analysis and Applied             tional Methods in Structural Dynamics and Earthquake Engi-
    Mathematics, 13-18 Sep 2018 (Rhodes, Greece).                          neering, 28-30 June 2021, Athens, Greece (Virtual).
45. Altomare C., Tagliaﬁerro B., Suzuki T., Dominguez J.M., Crespo       • DCE 2021 4th Doctoral Congress in Engineering, 28-29 June
    A.J.C., Briganti R. Relaxation zone method in SPH-based model ap-      2021, Porto, Portugal (Virtual).
    plied to wave-structure interaction, ISOPE-2018, the 28th Inter-
                                                                         • IDRA 2021web 37th Convegno Nazionale di Idraulica e
    national Ocean and Polar Engineering Conference, 10-15 Jun
                                                                           Costruzioni Idrauliche, 14-16 June 2021 (Virtual).
    2018, Sapporo, Japan.
                                                                         • SPHERIC 2021 15th International SPHERIC Workshop, 8-11
46. Usui A., Domínguez J.M., Suzuki T., Altomare C., Tagliaﬁerro B.
                                                                           June 2021, Newark NJ, US (Virtual).
    2017. Applicability of source generation (SG) and absorption tech-
    nique in a highly reﬂective condition, 12th SPHERIC Workshop,        • DualSPHysics Users Workshop 5th DualSPHysics Users Work-
    13-15 Jun 2017, Ourense, Spain.                                        shop, 15-17 Mar 2021, Barcelona, Spain (Virtual).
                                                                         • EURODYN 2020 11th International Conference on Structural
                                                                           Dynamics, 23-26 Nov 2020, Athens, Greece (Virtual).
 CONFERENCES AND WORKSHOPS                                               • CTA 2019 27th Convention CTA, 3-4 Oct 2019, Bologna, Italy.
 Oral Communication                                                      • EWTEC 2019 13th European Wave and Tidal Energy Confer-
 • MODENERLANDS – Final conference.            COST ACTION                 ence, 1-6 Sep 2019, Napoli, Italy.
   CA20109, 3-5 Sept 2025, Figueira-da-Foz, Portugal.                    • DualSPHysics Users Workshop 4th DualSPHysics Users Work-
 • OMAE 2025 44th International Conference on Ocean, Oﬀshore               shop, 22-24 Oct 2018, Lisbon, Portugal.
   & Arctic Engineering, 21-26 June 2025, Vancouver, Canada              Organization
• 8th DualSPHysics User Workshop. Member of the Local Or-               to design new specimens of anti-reﬂective structures, based on
  ganizing Committee. This event brings together the user and           functional stability and the improved dissipative performance
  developer community of the DualSPHysics open-source code.             for the conditions of the Outer Port of Punta Langosteira (A
  27-29 Jan 2026, Ourense, Spain. LINK                                  Coruña); PI Crespo A.
• Special Session 4 @ SPHERIC 2025 World Conference. Co-              • ISCRA-C project at CINECA, Italy, Mar - Nov 2018, Member
  organizer of Renewable Energy Engineering Innovations through         of the HPCEFM18 project. High Performance Computing for
  SPH Modeling. 17-19 June, Barcelona, Spain. LINK                      Environmental Fluid Mechanics 2018 (Italian National HPC Re-
• SPH modeling For Engineering applications: Structures for             search Project); instrumental funding based on competitive calls
  coastal protection and marine renewable energy. Organizer of          (ISCRA-C project at CINECA, Italy); 200 000 core-hours; PI Ami-
  SPH Users International Workshop, 25-27 Mar 2025, TUBS –              carelli A.
  Braunschweig, Germany                                               • ISCRA-C project at CINECA, Italy, Nov 2016 - Aug 2017, Mem-
• SPH modeling for Engineering Applications: Structures for             ber of the HPCEFM17 project. High Performance Computing
  coastal protection and wave energy converters. Organizer of           for Environmental Fluid Mechanics 2017 (Italian National HPC
  SPH Users International Workshop, 28-29 Sep 2023, Salerno,            Research Project); instrumental funding based on competitive
  Italy                                                                 calls (ISCRA-C project at CINECA, Italy); 200 000 core-hours;
                                                                        PI Amicarelli A.
• 6th DualSPHysics User Workshop. Member of the Local Or-
  ganizing Committee. It brings together the user and developer
  community of the DualSPHysics open-source code. 25-27 Oct           R&D MANAGEMENT, PARTICIPATION IN SCIENTIFIC
  2022, Barcelona, Spain. LINK                                        COMMITTEES
• DualSPHysics: an SPH-based method for engineering. Or-
  ganizer of SPH Users International Workshop, 5-6 Sep 2019,          • Member of the Scientiﬁc Committee: 19th SPHERIC World
  Salerno, Italy                                                        Conference. international organization representing the com-
                                                                        munity of researchers and industrial users of Smoothed Particle
PARTICIPATION IN EU & NATIONAL FUNDED PROJECTS
                                                                        Hydrodynamics (SPH). LINK
• EuroHPC Regular Access Project on MareNostrum5, Feb 2025
  - Feb 2026, Principal Investigator. “POW – Power production         • Wiki Coordinator, 2024 – present. Manager of the DualSPH-
   from Oﬀshore Wind”. High-ﬁdelity simulations of ﬂoating oﬀ-          ysics documentation. LINK
   shore wind turbines (FOWT) using the open-source DualSPH-          • Member, Jan 2024 – Sept 2025. MODENERLANDS COST Ac-
   ysics software, which employs Smoothed Particle Hydrodynam-          tion: Modular Energy Islands for Sustainability and Resilience.
   ics (SPH) for wave dynamics and other specialized solvers for        Working Group 2: Modular oﬀshore ﬂoating energy islands.
   multi-physics and mooring systems. Awarded 51 400 node-              LINK
   hours on MareNostrum5 ACC (Regular Access EHPC-REG-                • Developer, Mar 2023 – present. DEM-Engine an open-source
   2024R02-084). Estimated computing value: ~$200,000 (based            library based on a Dual-GPU DEM solver with complex grain
   on electricity and depreciation costs).                              geometry support (GNU Lesser General Public License (LGPL).
• ISCRA-C project at CINECA, Italy, Feb - Dec 2024, Principal In-       LINK
  vestigator. PWRPRINT: Current-informed power transfer func-         • Developer, 2022 – present. DSPH-ChronoLib an open-source
  tion for the Uppsala WEC using the SPH method. Instrumental           library released under LGPL.
  funding based on competitive calls (ISCRA-C project at CINECA,      • Member of the Scientiﬁc Committee 3rd Iberian SPH. Iberian
  Italy); award 10 000+2 000 GPU-hours (on Leonardo partition).         Congress Advances on SPH, 23-24 Jan 2024, Ourense, Spain.
• Large scale and high-resolution CFD simulations for wave en-          LINK
  ergy farms, 2023 - 2024, Member. Funds: EuroHPC Extreme             • Member, July 2022 – Mar 2023. WECANet A pan-European
  Scale Access Call. No. EHPC-EXT-2022E01-014. The project              Network for Marine Renewable Energy with a Focus on Wave
  aimed to perform the ﬁrst simulation of a wave energy extrac-         Energy. Working Group 1: Numerical hydrodynamic modelling
  tion farm (a WEC farm) using high-ﬁdelity numerical models            for WECs. LINK
  to anticipate the eﬀects of various arrangements of wave en-
  ergy converters (WECs) during a single simulation. Using Dual-      • Collaborator, 2018 - 2023. DualSPHysics numerical code
  SPHysics which can perform large-scale simulations in HPC sys-        based on the Smoothed Particle Hydrodynamics: relaxation
  tems, several nodes were used during for a single process. PI         zone method for coastal engineering applications. Presently
  Domínguez JM.                                                         working on wave energy converters modeling for eﬃciency and
                                                                        survivability analyses. LINK
• SURVIWEC project, Spain, 2021 - 2025, Member. SURVIWEC
  (Survivability of wave energy converters) has been accepted for
  funding under the Spanish Plan for Scientiﬁc and Technical Re-      TEACHING, INVITED TALKS
  search and Innovation 2017-2020. The present project aimed
  to ﬁnd suitable locations to install WECs using hindcast to pre-    Lecturing/Chairing
  dict future extreme wave conditions, thus considering their sur-    • Invited Lecturer: "Modeling oﬀshore renewable energy systems
  vivability under such extreme conditions.; PIs Crespo A. and De       with high-ﬁdelity models" (26 hours) for the Ph.D. Program in Me-
  Castro M.                                                             chanical Engineering – Organized by Dr. Bruno Paduano. 27–30
                                                                        May 2025, Politecnico di Torino, Italy. LINK
• NUMANTIA project, Spain, 2018 - 2019, Support staﬀ. De-
  velopment of a combined numerical-experimental methodology          • Session Moderator "SS4: Renewable Energy Engineering In-
  for analyzing, optimizing, and designing anti-reﬂective caissons.     novations through SPH Modeling" at the SPHERIC 2025,
  New functionalities were developed for the Lagrangian numer-          Barcelona, 19 June, 2025, (Spain).
  ical model based on Smoothed Particle Hydrodynamics (SPH),          • Session Moderator "Session 5" at the 7th DualSPHysics Work-
  ﬁrstly validated with experimental data. This tool is now used        shop, Bari, 20 Mar, 2024, (Italy).
• Lecturer: "Risk in Coastal Structures II" (2 hours) for Coastal       • Computing in Engineering Forum 2021 – Machine-Ground
  Flood Risk: Impacts, Conﬂicts, and Risks within the Program "Eras-      Consortium Meeting (MaGIC). Coupling DualSPHysics & Chrono:
  mus Mundus master’s degree in Flood Risk Management", UPC               New Framework for Fluid–solid and Fluid–structure Interaction,
  Barcelona–Tech, Oct 19, 2023.                                           21-22 Sep 2021, University of Wisconsin-Madison, Madison,
• Tutor during Hands-on session: "Discrete Element Method Sim-            WI.
  ulation with Chrono DEME" (3 hours) at the MaGIC 2023 Meet-           • WECANet Training school - Numerical modelling of WECs us-
  ing, Madison, WI, Dec 7, 2023.                                          ing SPH models. Numerical modeling of point-absorbing WECs
• Panelist during SPH Online V for the round table SPH & Industry         with DualSPHysics: the Mask1 case study, 22-23 Jan 2020, Uni-
  – current status and future perspectives. Chaired by Prof. Bene-        versidade de Vigo, Spain.
  dict D. Rogers, Oct 6, 2023. Online.                                  • Ciclo de conferencias en Ciencias de la Tierra 2018. Numeri-
• Tutor during Practical Sessions: "Breakwaters and WECs with             cal simulations using OpenFOAM for the wave absorbing caisson
  DualSPHysics" (9 hours) at the 2nd Users International Work-            in Punta Langosteira, 18 Dec 2018, Universidade de Vigo, Spain.
  shop, 28-29 Sep 2023, Salerno, Italy.
• Session Moderator "Renewable Energy I: FOWT I" at the ISOPE-          Supervising doctoral thesis and ﬁnal year projects
  2023 Conference, Ottawa, Canada, June 18-23, 2023, (Spain).           • Ph.D thesis. Co-supervisor Ocean space utilization for energy
• Session Moderator "Renewable energy devices" at the 6th Dual-           harvesting purposes. Supervisor: Felice Arena, (co-supervisor:
  SPHysics Workshop, University of Catalunya, Barcelona (Spain),          Giovanni Malara), University "Mediterranea" of Reggio Calabria
  22 Oct 2022.                                                            (Italy). Student: Beatrice Mina. 15 Dec 2023 - Present.
• Tutor during Hands-on session "Training day" organized within         • Ph.D thesis. Co-supervisor Large scale simulations of wind and
  the 6th DualSPHysics Workshop, University of Catalunya,                 wave power plants using CFD-based tools. Supervisor: Dr. Gia-
  Barcelona (Spain), 21 Oct 2022.                                         como Viccione, University of Salerno (Italy). Student: Bahareh
                                                                          Mehrmousavi. 01 Nov 2023 - Present.
• Training School: Hands-on course on experimental and numerical
  modelling of wave-structure interaction, Florence, Italy 12-16 July   • Ph.D thesis. Co-supervisor A fully Lagrangian SPH-DEM frame-
  2021: lecture on "Numerical modeling of an Oscillating Water            work for Fluid-structure interaction. Supervisor: Dr. Giacomo Vic-
  Column: moving to a 2D environment", and "Numerical model-              cione, University of Salerno (Italy). Student: Salvatore Capasso.
  ing of a moored box: moving to a 2D environment".                       01 Nov 2021 - 29 Jan 2025.
                                                                        • Master’s thesis. Numerical Reproduction of Regular and Irregular
Invited speaker
                                                                          Free-Surface Waves in DualSPHysics: From Setup to Calibration.
• Training day Morning session @ SPHERIC 2025. Multi-physics              Thesis Supervisor: Dr. Bruno Paduano, Politecnico di Torino
  engineering problems in renewable energy: challenges and oppor-         (Italy). Student: Rita Nunziata. Defended on 28 July 2025.
  tunities with SPH, 16 Jun 2025, Barcelona–Tech, Spain. LINK
                                                                        • Master’s thesis. Theoretical and computational comparison of
• Machine-Ground Consortium Meeting (MaGIC). A Review of                  ﬂuid dynamics analysis for ﬁxed 2-D bodies with simple geometries.
  the Use of Chrono DEM-Engine for Simulating Multi-Physics En-           Thesis Supervisor: Dr. Giacomo Viccione, University of Salerno
  gineering Problems, 11-12 Sept 2024, University of Wisconsin-           (Italy). Student: William Stampati. 01 Aug 2024 - 23 Mar 2025.
  Madison, Madison, WI.
                                                                        • Master’s thesis. Tuned liquid systems with equivalent mechanical
• Seminar at Marine Research Group (MRG). High-ﬁdelity hydro-             models for sloshing ﬂuids. Thesis Supervisor: Dr. Giacomo Vic-
  dynamic simulations of renewable energy devices with the SPH            cione, University of Salerno (Italy). Student: Giorgia Catherina
  method: A case study of a hybrid platform, 11 Apr 2024, Queen’s         Goursand Parente. 01 Dec 2022 - 16 Oct 2023.
  University Belfast, Belfast, UK.
                                                                        • Master’s thesis. Modelling elastic structures with DualSPHysics
• Machine-Ground Consortium Meeting (MaGIC). DualSPHysics                 code via rigid subsystem aggregation. Thesis Supervisor: Dr. Gia-
  & Chrono: A simulation platform for wave and wind energy develop-       como Viccione, University of Salerno (Italy). Student: Salvatore
  ment, 05-07 Dec 2023, University of Wisconsin-Madison, Madi-            Capasso. 07 Aug 2020 - 23 Mar 2021.
  son, WI.
                                                                        • Master’s thesis. Evaluation of the residual drift in multi-storey
• NI-HPC User Conference 2023.          High-performance GPU-             buildings under seismic events. Thesis Supervisor: Prof. Rosario
  accelerated software for advanced renewable energy simulations.         Montuori, University of Salerno (Italy). Student: Eleonora
  07 Nov 2023, Queen’s University Belfast, Belfast, NI. Link.             Manzo. 1 Apr 2021 - 22 Sept 2021.
• SPH Online V 5th Online International Workshop on SPH (fo-
  cus topic: SPH & Industry); organized by Prof Abbas Khayyer.
  06 Oct 2023, online. Link.                                            AWARDS AND SCHOLARSHIPS
• NREL Wave Group. Overview of DualSPHysics and Chrono cou-
                                                                        • COST Action CA20109 - Modular Energy Islands for Sustain-
  pling for simulating ﬂoating oﬀshore wind turbine platforms, 12
                                                                          ability and Resilience (MODENERLANDS). 3rd Call for Short
  July 2023, Flatirons Campus, Golden, CO.
                                                                          Term Scientiﬁc Missions (STSMs) Applications, STSM: Implemen-
• ARCHER2 Seminar. A CFD tool for the simulation of renewable             tation of mooring connections and electrical cables for large oﬀ-
  energy devices using GPU accelerated hardware, 25 May 2022,             shore systems within the open-source model Chrono DEM-Engine,
  University of Edinburgh, UK (Online).                                   at SBEL - UW–Madison (US), 6 Sept-7 Oct 2024. HORI-
• Code Developers’ Workshop 3 - Code Coupling. SPH for coastal            ZON2020 Framework Programme by COST (European Cooper-
  engineering: simulating devices for renewable energy, 28–29 Apr         ation in Science and Technology).
  2022, CCP-WSI Working Group, UK (Online).                             • Marie Skłodowska-Curie Action, Postdoctoral Fellowship
• Seminar at Marine Research Group (MRG). Towards a new nu-               Project: A numerical integrated model for the power output of
  merical tool for multiphysics simulations of ﬂoating oﬀshore wind       ﬂoating oﬀshore wind farms that are fully grid-connected during
  turbines, 24 Feb 2022, Queen’s University Belfast, Belfast, UK.         sea storms, at the Dept. of Electrical Engineering, Uppsala Uni-
  versity (Sweden), 2024-2026. Link.                                    tiﬁc Missions (STSMs) Applications, STSM: A Non-Linear Rela-
• Fulbright Visiting Scholar Program – Fulbright Schuman                tionship for Simulating Power Take-oﬀ Systems in DualSPHysics,
  Project: Towards carbon neutrality by 2050: Improving ma-             at EPhysLab - Universidade de Vigo, Spain, 27 May-15 July
  rine and wind energy exploitation rate by numerical modeling,         2021. HORIZON2020 Framework Programme by COST (Euro-
  at Simulation-Based Engineering Lab (SBEL), University of             pean Cooperation in Science and Technology).
  Wisconsin-Madison, 2 Feb-02 Aug 2023. Link.                         • COST Action CA17105 - A pan-European Network for Marine
• COST Action CA17105 - A pan-European Network for Marine               Renewable Energy (WECANeT). Training school: Numerical mod-
  Renewable Energy (WECANeT). 7th Call for Short Term Scien-            elling of WECs using SPH models, Campus de Ourense, Universi-
  tiﬁc Missions (STSMs) Applications, STSM: Maximum hydrody-            dade de Vigo, Spain, 22-23 Jan 2020. HORIZON2020 Frame-
  namics loads on point-absorber wave energy converters induced         work Programme by COST (European Cooperation in Science
  by extreme conditions using focused wave models, at EPhysLab -        and Technology).
  Universidade de Vigo, Spain, 11 July - 11 Sept 2022. HORI-          • Doctoral scholarship. Seismic Protection of Pallet Racking Struc-
  ZON2020 Framework Programme by COST (European Cooper-                 tures with Base Isolation Systems, University of Salerno, Fisciano,
  ation in Science and Technology).                                     Italy, 01 Nov 2018 - present. Italian Ministry for Education, the
• HPC-Europa3 Transnational Access programme. Project: To-              University and Research (MIUR) as part of the program Dottorati
  wards a New Numerical Tool for Multiphysics Simulations of Float-     Innovativi a caratterizzazione industriale, ID DOT 1328490–3,
  ing Oﬀshore Wind Turbines, at the School of Natural and Built         funded by the European Union (Structural Funding ERDF-ESF
  Environment, Queen’s University Belfast (UK), 17 Jan-30 Apr           for Research and Innovation 2014-2020).
  2022. HPC-Europa3 is supported by the European Commis-              • ERASMUS+ for Traineeship. Validation of the Latest Implementa-
  sion H2020 Research & Innovation GA # 730897. 325 000 core            tions in the Mesh-free Numerical Model DualSPHysics, FHR – Flan-
  hours @ EPCC computing center (University of Edinburgh, UK).          ders Hydraulic Research, Antwerp, Belgium, 17 Mar 2017 - 11
• COST Action CA17105 - A pan-European Network for Marine               Aug 2017. Erasmus+ programme of the European Union.
  Renewable Energy (WECANeT). 4th Call for Short Term Scien-




                                                                                                                  September 22, 2025
